<?xml version="1.0" encoding="UTF-8"?>

<!-- generated on 2026-03-26 11:00:37.099823 by Eclipse SUMO randomTrips.py v1_26_0+0000-fa7df22d7f1
<configuration>
    <net-file value="reseau_12_carrefours.net.xml"/>
    <route-file value="trafic.rou.xml"/>
    <fringe-factor value="10"/>
    <period value="2.5"/>
</configuration>
-->

<routes xmlns:xsi="http://www.w3.org/2001/XMLSchema-instance" xsi:noNamespaceSchemaLocation="http://sumo.dlr.de/xsd/routes_file.xsd">
    <trip id="0" depart="0.00" from="C1C0" to="A0A1"/>
    <trip id="1" depart="2.50" from="B0C0" to="B0A0"/>
    <trip id="2" depart="5.00" from="C2C1" to="C1D1"/>
    <trip id="3" depart="7.50" from="D1D0" to="A1A0"/>
    <trip id="4" depart="10.00" from="B2A2" to="A0B0"/>
    <trip id="5" depart="12.50" from="B0A0" to="C0B0"/>
    <trip id="6" depart="15.00" from="A0A1" to="A2B2"/>
    <trip id="7" depart="17.50" from="C1C2" to="C0C1"/>
    <trip id="8" depart="20.00" from="B0A0" to="C1B1"/>
    <trip id="9" depart="22.50" from="D0C0" to="A0A1"/>
    <trip id="10" depart="25.00" from="D0C0" to="C1D1"/>
    <trip id="11" depart="27.50" from="B1B0" to="A2A1"/>
    <trip id="12" depart="30.00" from="D2C2" to="B1B0"/>
    <trip id="13" depart="32.50" from="A1A2" to="A1A2"/>
    <trip id="14" depart="35.00" from="D0D1" to="C1B1"/>
    <trip id="15" depart="37.50" from="D0C0" to="C2B2"/>
    <trip id="16" depart="40.00" from="C0C1" to="D2D1"/>
    <trip id="17" depart="42.50" from="B1B2" to="C0C1"/>
    <trip id="18" depart="45.00" from="D0D1" to="C1C0"/>
    <trip id="19" depart="47.50" from="D1C1" to="C0D0"/>
    <trip id="20" depart="50.00" from="C1D1" to="A0B0"/>
    <trip id="21" depart="52.50" from="B0A0" to="B0C0"/>
    <trip id="22" depart="55.00" from="A1A0" to="B0A0"/>
    <trip id="23" depart="57.50" from="A1A2" to="B0C0"/>
    <trip id="24" depart="60.00" from="C1C0" to="B1B2"/>
    <trip id="25" depart="62.50" from="B1B2" to="B0A0"/>
    <trip id="26" depart="65.00" from="B0C0" to="D1D2"/>
    <trip id="27" depart="67.50" from="C1C2" to="C1B1"/>
    <trip id="28" depart="70.00" from="A2A1" to="C2B2"/>
    <trip id="29" depart="72.50" from="A2A1" to="B1B2"/>
    <trip id="30" depart="75.00" from="D2D1" to="C1C0"/>
    <trip id="31" depart="77.50" from="C0C1" to="C1D1"/>
    <trip id="32" depart="80.00" from="D0D1" to="C2D2"/>
    <trip id="33" depart="82.50" from="B0A0" to="A0B0"/>
    <trip id="34" depart="85.00" from="B1A1" to="B0C0"/>
    <trip id="35" depart="87.50" from="B0A0" to="D2C2"/>
    <trip id="36" depart="90.00" from="D1C1" to="B1A1"/>
    <trip id="37" depart="92.50" from="C1C2" to="B1C1"/>
    <trip id="38" depart="95.00" from="D1D2" to="B2B1"/>
    <trip id="39" depart="97.50" from="B0C0" to="B0B1"/>
    <trip id="40" depart="100.00" from="C0D0" to="B0B1"/>
    <trip id="41" depart="102.50" from="C0D0" to="D1D0"/>
    <trip id="42" depart="105.00" from="B1C1" to="B0A0"/>
    <trip id="43" depart="107.50" from="D2D1" to="C0B0"/>
    <trip id="44" depart="110.00" from="A1A2" to="A0B0"/>
    <trip id="45" depart="112.50" from="A1A2" to="C1C0"/>
    <trip id="46" depart="115.00" from="C2D2" to="B2A2"/>
    <trip id="47" depart="117.50" from="A1A0" to="B1B2"/>
    <trip id="48" depart="120.00" from="D2D1" to="C0B0"/>
    <trip id="49" depart="122.50" from="D2D1" to="D1C1"/>
    <trip id="50" depart="125.00" from="A0A1" to="C2B2"/>
    <trip id="51" depart="127.50" from="C1D1" to="C0C1"/>
    <trip id="52" depart="130.00" from="B0C0" to="C1C0"/>
    <trip id="53" depart="132.50" from="A1A2" to="B2A2"/>
    <trip id="54" depart="135.00" from="B2B1" to="D2C2"/>
    <trip id="55" depart="137.50" from="D1C1" to="B0B1"/>
    <trip id="56" depart="140.00" from="C0B0" to="A2B2"/>
    <trip id="57" depart="142.50" from="D1D2" to="D1C1"/>
    <trip id="58" depart="145.00" from="B1A1" to="C1C0"/>
    <trip id="59" depart="147.50" from="C1B1" to="A2A1"/>
    <trip id="60" depart="150.00" from="C2C1" to="C0C1"/>
    <trip id="61" depart="152.50" from="C2D2" to="C0C1"/>
    <trip id="62" depart="155.00" from="A0A1" to="B1B0"/>
    <trip id="63" depart="157.50" from="A0A1" to="D1D2"/>
    <trip id="64" depart="160.00" from="D1C1" to="D0D1"/>
    <trip id="65" depart="162.50" from="B1A1" to="A0B0"/>
    <trip id="66" depart="165.00" from="D1C1" to="D2C2"/>
    <trip id="67" depart="167.50" from="A1A0" to="B2C2"/>
    <trip id="68" depart="170.00" from="A1A0" to="C2C1"/>
    <trip id="69" depart="172.50" from="C2D2" to="A1B1"/>
    <trip id="70" depart="175.00" from="B2C2" to="C0C1"/>
    <trip id="71" depart="177.50" from="B0C0" to="D1C1"/>
    <trip id="72" depart="180.00" from="B2A2" to="B0A0"/>
    <trip id="73" depart="182.50" from="C0C1" to="C2B2"/>
    <trip id="74" depart="185.00" from="A2B2" to="B1A1"/>
    <trip id="75" depart="187.50" from="D2D1" to="C1C2"/>
    <trip id="76" depart="190.00" from="B2A2" to="C0B0"/>
    <trip id="77" depart="192.50" from="A1B1" to="B0A0"/>
    <trip id="78" depart="195.00" from="B1B0" to="C1B1"/>
    <trip id="79" depart="197.50" from="B0A0" to="B0A0"/>
    <trip id="80" depart="200.00" from="A1A0" to="C1C0"/>
    <trip id="81" depart="202.50" from="B0A0" to="D1D0"/>
    <trip id="82" depart="205.00" from="D1C1" to="A1A0"/>
    <trip id="83" depart="207.50" from="B0B1" to="C1C2"/>
    <trip id="84" depart="210.00" from="B0A0" to="A1B1"/>
    <trip id="85" depart="212.50" from="D1D2" to="C0D0"/>
    <trip id="86" depart="215.00" from="B2C2" to="C2D2"/>
    <trip id="87" depart="217.50" from="D0C0" to="A2B2"/>
    <trip id="88" depart="220.00" from="A1A2" to="B2A2"/>
    <trip id="89" depart="222.50" from="B2A2" to="B2B1"/>
    <trip id="90" depart="225.00" from="C2B2" to="C1C2"/>
    <trip id="91" depart="227.50" from="D2D1" to="A1A2"/>
    <trip id="92" depart="230.00" from="B1C1" to="B1B0"/>
    <trip id="93" depart="232.50" from="D1C1" to="B0B1"/>
    <trip id="94" depart="235.00" from="A2B2" to="B2B1"/>
    <trip id="95" depart="237.50" from="B2A2" to="B0C0"/>
    <trip id="96" depart="240.00" from="B0B1" to="D1D2"/>
    <trip id="97" depart="242.50" from="B2B1" to="D1C1"/>
    <trip id="98" depart="245.00" from="C0C1" to="A0B0"/>
    <trip id="99" depart="247.50" from="D2D1" to="D0D1"/>
    <trip id="100" depart="250.00" from="D2C2" to="D1D2"/>
    <trip id="101" depart="252.50" from="D0D1" to="A2A1"/>
    <trip id="102" depart="255.00" from="B2C2" to="B0A0"/>
    <trip id="103" depart="257.50" from="B1C1" to="A0B0"/>
    <trip id="104" depart="260.00" from="B1B2" to="D2D1"/>
    <trip id="105" depart="262.50" from="B0C0" to="C2D2"/>
    <trip id="106" depart="265.00" from="B2B1" to="B2A2"/>
    <trip id="107" depart="267.50" from="D2C2" to="D2D1"/>
    <trip id="108" depart="270.00" from="C0C1" to="C2B2"/>
    <trip id="109" depart="272.50" from="A2A1" to="B1A1"/>
    <trip id="110" depart="275.00" from="D2C2" to="C0D0"/>
    <trip id="111" depart="277.50" from="C0C1" to="C2C1"/>
    <trip id="112" depart="280.00" from="A0B0" to="C0D0"/>
    <trip id="113" depart="282.50" from="C0B0" to="D0D1"/>
    <trip id="114" depart="285.00" from="A2A1" to="D2C2"/>
    <trip id="115" depart="287.50" from="A1A0" to="A2B2"/>
    <trip id="116" depart="290.00" from="C1B1" to="C1C2"/>
    <trip id="117" depart="292.50" from="B0A0" to="A1B1"/>
    <trip id="118" depart="295.00" from="D1D0" to="B0B1"/>
    <trip id="119" depart="297.50" from="C1B1" to="C1C0"/>
    <trip id="120" depart="300.00" from="B2A2" to="C0D0"/>
    <trip id="121" depart="302.50" from="C0B0" to="D1D2"/>
    <trip id="122" depart="305.00" from="A2B2" to="C2B2"/>
    <trip id="123" depart="307.50" from="B0B1" to="B1C1"/>
    <trip id="124" depart="310.00" from="C1C2" to="B1A1"/>
    <trip id="125" depart="312.50" from="B1A1" to="C2C1"/>
    <trip id="126" depart="315.00" from="A1A0" to="B2B1"/>
    <trip id="127" depart="317.50" from="D2D1" to="D2D1"/>
    <trip id="128" depart="320.00" from="A1A0" to="B0A0"/>
    <trip id="129" depart="322.50" from="B0C0" to="D1D2"/>
    <trip id="130" depart="325.00" from="D1C1" to="D1C1"/>
    <trip id="131" depart="327.50" from="B1B2" to="A2A1"/>
    <trip id="132" depart="330.00" from="D0D1" to="C1D1"/>
    <trip id="133" depart="332.50" from="C1B1" to="D2D1"/>
    <trip id="134" depart="335.00" from="C1C2" to="A0A1"/>
    <trip id="135" depart="337.50" from="D0C0" to="B1A1"/>
    <trip id="136" depart="340.00" from="C1C2" to="D1D2"/>
    <trip id="137" depart="342.50" from="A1B1" to="A1A2"/>
    <trip id="138" depart="345.00" from="A1A2" to="C0C1"/>
    <trip id="139" depart="347.50" from="B0C0" to="C1B1"/>
    <trip id="140" depart="350.00" from="C2B2" to="A2B2"/>
    <trip id="141" depart="352.50" from="C1C0" to="B0B1"/>
    <trip id="142" depart="355.00" from="B2C2" to="D1D0"/>
    <trip id="143" depart="357.50" from="D0D1" to="A1A2"/>
    <trip id="144" depart="360.00" from="B2A2" to="B0C0"/>
    <trip id="145" depart="362.50" from="A0A1" to="C2D2"/>
    <trip id="146" depart="365.00" from="C1C0" to="B0B1"/>
    <trip id="147" depart="367.50" from="C2C1" to="C0C1"/>
    <trip id="148" depart="370.00" from="B2A2" to="A0A1"/>
    <trip id="149" depart="372.50" from="A1A0" to="D1D0"/>
    <trip id="150" depart="375.00" from="D1D0" to="C0C1"/>
    <trip id="151" depart="377.50" from="D0D1" to="C0D0"/>
    <trip id="152" depart="380.00" from="A2A1" to="A1B1"/>
    <trip id="153" depart="382.50" from="B1A1" to="D1D0"/>
    <trip id="154" depart="385.00" from="D0C0" to="D1C1"/>
    <trip id="155" depart="387.50" from="D1D0" to="B0A0"/>
    <trip id="156" depart="390.00" from="B0B1" to="A1A2"/>
    <trip id="157" depart="392.50" from="C2D2" to="D1D0"/>
    <trip id="158" depart="395.00" from="B1C1" to="C1C0"/>
    <trip id="159" depart="397.50" from="A2A1" to="D1D2"/>
    <trip id="160" depart="400.00" from="D1C1" to="D2D1"/>
    <trip id="161" depart="402.50" from="D0C0" to="D1C1"/>
    <trip id="162" depart="405.00" from="A0A1" to="C2C1"/>
    <trip id="163" depart="407.50" from="B1B0" to="D1D2"/>
    <trip id="164" depart="410.00" from="D0C0" to="D1C1"/>
    <trip id="165" depart="412.50" from="D0C0" to="B0C0"/>
    <trip id="166" depart="415.00" from="C2D2" to="A1A2"/>
    <trip id="167" depart="417.50" from="D1C1" to="D1C1"/>
    <trip id="168" depart="420.00" from="B0A0" to="D0C0"/>
    <trip id="169" depart="422.50" from="B2B1" to="B1A1"/>
    <trip id="170" depart="425.00" from="D0C0" to="B0A0"/>
    <trip id="171" depart="427.50" from="A0A1" to="A2B2"/>
    <trip id="172" depart="430.00" from="B1B0" to="D1C1"/>
    <trip id="173" depart="432.50" from="D2C2" to="B0C0"/>
    <trip id="174" depart="435.00" from="C1C0" to="B1C1"/>
    <trip id="175" depart="437.50" from="D2D1" to="C0C1"/>
    <trip id="176" depart="440.00" from="D1D2" to="A1A2"/>
    <trip id="177" depart="442.50" from="D2C2" to="A2B2"/>
    <trip id="178" depart="445.00" from="D2C2" to="B0C0"/>
    <trip id="179" depart="447.50" from="A1A2" to="B2A2"/>
    <trip id="180" depart="450.00" from="C2B2" to="B1A1"/>
    <trip id="181" depart="452.50" from="C1B1" to="C0B0"/>
    <trip id="182" depart="455.00" from="B1C1" to="C0D0"/>
    <trip id="183" depart="457.50" from="B0B1" to="C2B2"/>
    <trip id="184" depart="460.00" from="A0A1" to="D1D2"/>
    <trip id="185" depart="462.50" from="C0C1" to="C2B2"/>
    <trip id="186" depart="465.00" from="C2C1" to="C1C2"/>
    <trip id="187" depart="467.50" from="B1B2" to="A1A0"/>
    <trip id="188" depart="470.00" from="C1C2" to="B1B0"/>
    <trip id="189" depart="472.50" from="B1A1" to="D0D1"/>
    <trip id="190" depart="475.00" from="C2B2" to="B1A1"/>
    <trip id="191" depart="477.50" from="B1A1" to="B1C1"/>
    <trip id="192" depart="480.00" from="B1C1" to="B1A1"/>
    <trip id="193" depart="482.50" from="A1B1" to="B2A2"/>
    <trip id="194" depart="485.00" from="D1D2" to="C1D1"/>
    <trip id="195" depart="487.50" from="D1D0" to="C1B1"/>
    <trip id="196" depart="490.00" from="B1A1" to="C0C1"/>
    <trip id="197" depart="492.50" from="A0A1" to="B0C0"/>
    <trip id="198" depart="495.00" from="B2A2" to="C0D0"/>
    <trip id="199" depart="497.50" from="C1C2" to="B2B1"/>
    <trip id="200" depart="500.00" from="B2B1" to="B0A0"/>
    <trip id="201" depart="502.50" from="B2C2" to="D1D0"/>
    <trip id="202" depart="505.00" from="D0C0" to="A2A1"/>
    <trip id="203" depart="507.50" from="A1A0" to="C0B0"/>
    <trip id="204" depart="510.00" from="C1C0" to="B1B0"/>
    <trip id="205" depart="512.50" from="D0C0" to="C2C1"/>
    <trip id="206" depart="515.00" from="C1C2" to="B0A0"/>
    <trip id="207" depart="517.50" from="A2B2" to="A0A1"/>
    <trip id="208" depart="520.00" from="B0B1" to="B2C2"/>
    <trip id="209" depart="522.50" from="D0D1" to="A1A0"/>
    <trip id="210" depart="525.00" from="B2A2" to="C1C0"/>
    <trip id="211" depart="527.50" from="A2B2" to="C1D1"/>
    <trip id="212" depart="530.00" from="B2C2" to="B0B1"/>
    <trip id="213" depart="532.50" from="C1C2" to="A0A1"/>
    <trip id="214" depart="535.00" from="C2C1" to="C2D2"/>
    <trip id="215" depart="537.50" from="A1A2" to="B2A2"/>
    <trip id="216" depart="540.00" from="A2A1" to="D2C2"/>
    <trip id="217" depart="542.50" from="C0B0" to="A0B0"/>
    <trip id="218" depart="545.00" from="B0B1" to="D0D1"/>
    <trip id="219" depart="547.50" from="B2B1" to="D0C0"/>
    <trip id="220" depart="550.00" from="C1C2" to="D2D1"/>
    <trip id="221" depart="552.50" from="C1B1" to="D2C2"/>
    <trip id="222" depart="555.00" from="D1D0" to="C1B1"/>
    <trip id="223" depart="557.50" from="C2B2" to="C0B0"/>
    <trip id="224" depart="560.00" from="D0D1" to="C0C1"/>
    <trip id="225" depart="562.50" from="D1D0" to="C2C1"/>
    <trip id="226" depart="565.00" from="B2C2" to="B0B1"/>
    <trip id="227" depart="567.50" from="B0B1" to="C1C0"/>
    <trip id="228" depart="570.00" from="C2D2" to="C0B0"/>
    <trip id="229" depart="572.50" from="C1C0" to="B0C0"/>
    <trip id="230" depart="575.00" from="A1A0" to="B0C0"/>
    <trip id="231" depart="577.50" from="B0C0" to="B1A1"/>
    <trip id="232" depart="580.00" from="C0C1" to="A1B1"/>
    <trip id="233" depart="582.50" from="B0A0" to="C1D1"/>
    <trip id="234" depart="585.00" from="C2B2" to="A1A0"/>
    <trip id="235" depart="587.50" from="B1C1" to="C0C1"/>
    <trip id="236" depart="590.00" from="B2A2" to="B0A0"/>
    <trip id="237" depart="592.50" from="B2A2" to="D1D0"/>
    <trip id="238" depart="595.00" from="C0D0" to="C1D1"/>
    <trip id="239" depart="597.50" from="D1C1" to="C2D2"/>
    <trip id="240" depart="600.00" from="B1B2" to="A0A1"/>
    <trip id="241" depart="602.50" from="B1B0" to="C2C1"/>
    <trip id="242" depart="605.00" from="D1C1" to="D2C2"/>
    <trip id="243" depart="607.50" from="B2A2" to="C2C1"/>
    <trip id="244" depart="610.00" from="C0C1" to="C1B1"/>
    <trip id="245" depart="612.50" from="B0A0" to="B0A0"/>
    <trip id="246" depart="615.00" from="B2A2" to="A0A1"/>
    <trip id="247" depart="617.50" from="B1B0" to="C1D1"/>
    <trip id="248" depart="620.00" from="B1C1" to="A2A1"/>
    <trip id="249" depart="622.50" from="B2B1" to="A1B1"/>
    <trip id="250" depart="625.00" from="C1C0" to="A0A1"/>
    <trip id="251" depart="627.50" from="B1C1" to="C0D0"/>
    <trip id="252" depart="630.00" from="A0A1" to="C1C0"/>
    <trip id="253" depart="632.50" from="A1B1" to="B2B1"/>
    <trip id="254" depart="635.00" from="A0B0" to="B1B2"/>
    <trip id="255" depart="637.50" from="B0A0" to="B1B0"/>
    <trip id="256" depart="640.00" from="C2C1" to="B1B2"/>
    <trip id="257" depart="642.50" from="C2C1" to="D0D1"/>
    <trip id="258" depart="645.00" from="B0B1" to="A1A0"/>
    <trip id="259" depart="647.50" from="A0A1" to="C0C1"/>
    <trip id="260" depart="650.00" from="D2D1" to="B1B0"/>
    <trip id="261" depart="652.50" from="C1C2" to="C2D2"/>
    <trip id="262" depart="655.00" from="C1C2" to="C2C1"/>
    <trip id="263" depart="657.50" from="D2C2" to="A2B2"/>
    <trip id="264" depart="660.00" from="A0A1" to="A2A1"/>
    <trip id="265" depart="662.50" from="A1B1" to="C1C2"/>
    <trip id="266" depart="665.00" from="C0D0" to="B0A0"/>
    <trip id="267" depart="667.50" from="C1D1" to="C2D2"/>
    <trip id="268" depart="670.00" from="A2A1" to="C1B1"/>
    <trip id="269" depart="672.50" from="C2C1" to="A1A2"/>
    <trip id="270" depart="675.00" from="D0C0" to="D2C2"/>
    <trip id="271" depart="677.50" from="A1A2" to="A0A1"/>
    <trip id="272" depart="680.00" from="B1A1" to="C1D1"/>
    <trip id="273" depart="682.50" from="D2C2" to="B1C1"/>
    <trip id="274" depart="685.00" from="C2B2" to="A1A0"/>
    <trip id="275" depart="687.50" from="C1D1" to="C1C0"/>
    <trip id="276" depart="690.00" from="A1A2" to="C2D2"/>
    <trip id="277" depart="692.50" from="D0D1" to="C1B1"/>
    <trip id="278" depart="695.00" from="A1B1" to="D2D1"/>
    <trip id="279" depart="697.50" from="C2D2" to="B1B0"/>
    <trip id="280" depart="700.00" from="B2A2" to="B1B2"/>
    <trip id="281" depart="702.50" from="C0B0" to="B1B0"/>
    <trip id="282" depart="705.00" from="D0D1" to="D0C0"/>
    <trip id="283" depart="707.50" from="A1A2" to="D2C2"/>
    <trip id="284" depart="710.00" from="C1C0" to="D0D1"/>
    <trip id="285" depart="712.50" from="C2B2" to="B2A2"/>
    <trip id="286" depart="715.00" from="C2B2" to="D2C2"/>
    <trip id="287" depart="717.50" from="B0C0" to="D0C0"/>
    <trip id="288" depart="720.00" from="C0C1" to="B2C2"/>
    <trip id="289" depart="722.50" from="B2A2" to="C2B2"/>
    <trip id="290" depart="725.00" from="B0C0" to="D0D1"/>
    <trip id="291" depart="727.50" from="D0D1" to="A1A0"/>
    <trip id="292" depart="730.00" from="D1C1" to="B0B1"/>
    <trip id="293" depart="732.50" from="B2B1" to="C1B1"/>
    <trip id="294" depart="735.00" from="B1B2" to="A0A1"/>
    <trip id="295" depart="737.50" from="D0D1" to="A2B2"/>
    <trip id="296" depart="740.00" from="B0A0" to="D0C0"/>
    <trip id="297" depart="742.50" from="B1B0" to="D1C1"/>
    <trip id="298" depart="745.00" from="C1D1" to="B0C0"/>
    <trip id="299" depart="747.50" from="A0A1" to="D2C2"/>
    <trip id="300" depart="750.00" from="A1A0" to="C2B2"/>
    <trip id="301" depart="752.50" from="B2C2" to="C2C1"/>
    <trip id="302" depart="755.00" from="C1D1" to="C1C0"/>
    <trip id="303" depart="757.50" from="B2C2" to="C2D2"/>
    <trip id="304" depart="760.00" from="A1A2" to="B0A0"/>
    <trip id="305" depart="762.50" from="C1D1" to="B1A1"/>
    <trip id="306" depart="765.00" from="C0D0" to="B2C2"/>
    <trip id="307" depart="767.50" from="C0C1" to="B2A2"/>
    <trip id="308" depart="770.00" from="C2C1" to="B1B0"/>
    <trip id="309" depart="772.50" from="C1D1" to="B0C0"/>
    <trip id="310" depart="775.00" from="B0B1" to="A1B1"/>
    <trip id="311" depart="777.50" from="A2B2" to="A1B1"/>
    <trip id="312" depart="780.00" from="C0C1" to="C2C1"/>
    <trip id="313" depart="782.50" from="A2B2" to="B0A0"/>
    <trip id="314" depart="785.00" from="B2C2" to="C2B2"/>
    <trip id="315" depart="787.50" from="D2D1" to="C0B0"/>
    <trip id="316" depart="790.00" from="B0C0" to="A1A2"/>
    <trip id="317" depart="792.50" from="A2B2" to="B0A0"/>
    <trip id="318" depart="795.00" from="A2B2" to="A0A1"/>
    <trip id="319" depart="797.50" from="C0C1" to="B0C0"/>
    <trip id="320" depart="800.00" from="D2D1" to="C0C1"/>
    <trip id="321" depart="802.50" from="C1D1" to="A1B1"/>
    <trip id="322" depart="805.00" from="D1C1" to="B2C2"/>
    <trip id="323" depart="807.50" from="D1C1" to="C0D0"/>
    <trip id="324" depart="810.00" from="B2B1" to="B2A2"/>
    <trip id="325" depart="812.50" from="A2B2" to="A0B0"/>
    <trip id="326" depart="815.00" from="D1D2" to="B2C2"/>
    <trip id="327" depart="817.50" from="D0C0" to="B1C1"/>
    <trip id="328" depart="820.00" from="A1A0" to="C1C0"/>
    <trip id="329" depart="822.50" from="A0B0" to="A2A1"/>
    <trip id="330" depart="825.00" from="C0D0" to="B1A1"/>
    <trip id="331" depart="827.50" from="D2D1" to="A1B1"/>
    <trip id="332" depart="830.00" from="C2C1" to="C1B1"/>
    <trip id="333" depart="832.50" from="C2D2" to="B0A0"/>
    <trip id="334" depart="835.00" from="C0B0" to="B2B1"/>
    <trip id="335" depart="837.50" from="B2B1" to="D1C1"/>
    <trip id="336" depart="840.00" from="D2D1" to="B1A1"/>
    <trip id="337" depart="842.50" from="C1C0" to="C1B1"/>
    <trip id="338" depart="845.00" from="C2C1" to="D2C2"/>
    <trip id="339" depart="847.50" from="B0A0" to="B0A0"/>
    <trip id="340" depart="850.00" from="C1C2" to="A2A1"/>
    <trip id="341" depart="852.50" from="A2A1" to="A1A0"/>
    <trip id="342" depart="855.00" from="A0A1" to="B2B1"/>
    <trip id="343" depart="857.50" from="C1B1" to="B0C0"/>
    <trip id="344" depart="860.00" from="B0A0" to="C2B2"/>
    <trip id="345" depart="862.50" from="C1D1" to="B2B1"/>
    <trip id="346" depart="865.00" from="C1D1" to="D1D2"/>
    <trip id="347" depart="867.50" from="C2D2" to="C1C0"/>
    <trip id="348" depart="870.00" from="C1C2" to="D1D2"/>
    <trip id="349" depart="872.50" from="B2A2" to="C0C1"/>
    <trip id="350" depart="875.00" from="C1C2" to="D1D0"/>
    <trip id="351" depart="877.50" from="D0D1" to="A1A0"/>
    <trip id="352" depart="880.00" from="A2A1" to="B1A1"/>
    <trip id="353" depart="882.50" from="C2C1" to="C0D0"/>
    <trip id="354" depart="885.00" from="B0C0" to="A1B1"/>
    <trip id="355" depart="887.50" from="C1D1" to="C1D1"/>
    <trip id="356" depart="890.00" from="D2C2" to="C0B0"/>
    <trip id="357" depart="892.50" from="B2C2" to="A1A0"/>
    <trip id="358" depart="895.00" from="A0B0" to="B2A2"/>
    <trip id="359" depart="897.50" from="B1A1" to="B0B1"/>
    <trip id="360" depart="900.00" from="A1A2" to="D2C2"/>
    <trip id="361" depart="902.50" from="D0D1" to="C0D0"/>
    <trip id="362" depart="905.00" from="D2C2" to="D2D1"/>
    <trip id="363" depart="907.50" from="C1C2" to="B0C0"/>
    <trip id="364" depart="910.00" from="A0B0" to="C2C1"/>
    <trip id="365" depart="912.50" from="B2B1" to="C1C2"/>
    <trip id="366" depart="915.00" from="D1D2" to="A2B2"/>
    <trip id="367" depart="917.50" from="C0D0" to="C1C0"/>
    <trip id="368" depart="920.00" from="B2C2" to="A1A2"/>
    <trip id="369" depart="922.50" from="B1B0" to="B1B0"/>
    <trip id="370" depart="925.00" from="C1C2" to="D1C1"/>
    <trip id="371" depart="927.50" from="B1B0" to="C1D1"/>
    <trip id="372" depart="930.00" from="B0C0" to="D2C2"/>
    <trip id="373" depart="932.50" from="D0C0" to="C0C1"/>
    <trip id="374" depart="935.00" from="B2B1" to="B1A1"/>
    <trip id="375" depart="937.50" from="B1A1" to="D2C2"/>
    <trip id="376" depart="940.00" from="B1C1" to="C0B0"/>
    <trip id="377" depart="942.50" from="D2D1" to="C1C2"/>
    <trip id="378" depart="945.00" from="C0C1" to="B2A2"/>
    <trip id="379" depart="947.50" from="A2B2" to="B1B2"/>
    <trip id="380" depart="950.00" from="C2C1" to="C1C0"/>
    <trip id="381" depart="952.50" from="C2C1" to="A2B2"/>
    <trip id="382" depart="955.00" from="C0C1" to="D1D2"/>
    <trip id="383" depart="957.50" from="B2A2" to="C1D1"/>
    <trip id="384" depart="960.00" from="A1B1" to="D2D1"/>
    <trip id="385" depart="962.50" from="C1B1" to="B0B1"/>
    <trip id="386" depart="965.00" from="A2A1" to="C0C1"/>
    <trip id="387" depart="967.50" from="C0C1" to="A1A2"/>
    <trip id="388" depart="970.00" from="D2D1" to="D1D2"/>
    <trip id="389" depart="972.50" from="B2B1" to="A1A2"/>
    <trip id="390" depart="975.00" from="D0D1" to="B2C2"/>
    <trip id="391" depart="977.50" from="C2B2" to="C0B0"/>
    <trip id="392" depart="980.00" from="B0C0" to="D0D1"/>
    <trip id="393" depart="982.50" from="D2D1" to="B0B1"/>
    <trip id="394" depart="985.00" from="C0C1" to="B1C1"/>
    <trip id="395" depart="987.50" from="D1D2" to="C0B0"/>
    <trip id="396" depart="990.00" from="D1C1" to="D1C1"/>
    <trip id="397" depart="992.50" from="B0C0" to="C2D2"/>
    <trip id="398" depart="995.00" from="B2A2" to="D1D2"/>
    <trip id="399" depart="997.50" from="C0B0" to="D0C0"/>
    <trip id="400" depart="1000.00" from="B0C0" to="B1A1"/>
    <trip id="401" depart="1002.50" from="C0D0" to="D2D1"/>
    <trip id="402" depart="1005.00" from="B2C2" to="A2A1"/>
    <trip id="403" depart="1007.50" from="C0C1" to="B1B0"/>
    <trip id="404" depart="1010.00" from="C0C1" to="C0C1"/>
    <trip id="405" depart="1012.50" from="B2B1" to="B1A1"/>
    <trip id="406" depart="1015.00" from="A2B2" to="C1D1"/>
    <trip id="407" depart="1017.50" from="C0D0" to="B0A0"/>
    <trip id="408" depart="1020.00" from="C2D2" to="A0B0"/>
    <trip id="409" depart="1022.50" from="C2C1" to="C1D1"/>
    <trip id="410" depart="1025.00" from="D0C0" to="B1C1"/>
    <trip id="411" depart="1027.50" from="C1C2" to="D0C0"/>
    <trip id="412" depart="1030.00" from="D2D1" to="B2C2"/>
    <trip id="413" depart="1032.50" from="A0B0" to="C0B0"/>
    <trip id="414" depart="1035.00" from="C1B1" to="D1C1"/>
    <trip id="415" depart="1037.50" from="D1C1" to="B2A2"/>
    <trip id="416" depart="1040.00" from="C0B0" to="B2B1"/>
    <trip id="417" depart="1042.50" from="C2B2" to="B1C1"/>
    <trip id="418" depart="1045.00" from="C1C2" to="A2A1"/>
    <trip id="419" depart="1047.50" from="B2B1" to="D2C2"/>
    <trip id="420" depart="1050.00" from="B1B0" to="C1D1"/>
    <trip id="421" depart="1052.50" from="C1C2" to="D0D1"/>
    <trip id="422" depart="1055.00" from="D0D1" to="D1C1"/>
    <trip id="423" depart="1057.50" from="B1B2" to="B1A1"/>
    <trip id="424" depart="1060.00" from="C2B2" to="C2C1"/>
    <trip id="425" depart="1062.50" from="D1C1" to="A0B0"/>
    <trip id="426" depart="1065.00" from="A1A0" to="C1C0"/>
    <trip id="427" depart="1067.50" from="D1D2" to="D2D1"/>
    <trip id="428" depart="1070.00" from="C2C1" to="B2A2"/>
    <trip id="429" depart="1072.50" from="A1A2" to="C1C0"/>
    <trip id="430" depart="1075.00" from="D1C1" to="B2B1"/>
    <trip id="431" depart="1077.50" from="C1D1" to="D1D0"/>
    <trip id="432" depart="1080.00" from="A0B0" to="D0C0"/>
    <trip id="433" depart="1082.50" from="B0C0" to="B1B2"/>
    <trip id="434" depart="1085.00" from="A1B1" to="C0C1"/>
    <trip id="435" depart="1087.50" from="C0D0" to="C2D2"/>
    <trip id="436" depart="1090.00" from="A2A1" to="A1A0"/>
    <trip id="437" depart="1092.50" from="D1C1" to="C1C0"/>
    <trip id="438" depart="1095.00" from="B0B1" to="D1D2"/>
    <trip id="439" depart="1097.50" from="A1B1" to="B2B1"/>
    <trip id="440" depart="1100.00" from="B0B1" to="B0B1"/>
    <trip id="441" depart="1102.50" from="A0A1" to="D0C0"/>
    <trip id="442" depart="1105.00" from="D1D0" to="C1D1"/>
    <trip id="443" depart="1107.50" from="A2A1" to="B2B1"/>
    <trip id="444" depart="1110.00" from="B1B0" to="C0D0"/>
    <trip id="445" depart="1112.50" from="C1C0" to="B2A2"/>
    <trip id="446" depart="1115.00" from="B0B1" to="D0D1"/>
    <trip id="447" depart="1117.50" from="A2B2" to="B1C1"/>
    <trip id="448" depart="1120.00" from="B2C2" to="B0B1"/>
    <trip id="449" depart="1122.50" from="C0D0" to="C0D0"/>
    <trip id="450" depart="1125.00" from="D2D1" to="B1A1"/>
    <trip id="451" depart="1127.50" from="D2D1" to="C1C2"/>
    <trip id="452" depart="1130.00" from="B0C0" to="C0D0"/>
    <trip id="453" depart="1132.50" from="C1D1" to="C2C1"/>
    <trip id="454" depart="1135.00" from="A0B0" to="C1B1"/>
    <trip id="455" depart="1137.50" from="B2C2" to="D1D0"/>
    <trip id="456" depart="1140.00" from="B0C0" to="D0C0"/>
    <trip id="457" depart="1142.50" from="C1B1" to="B1B0"/>
    <trip id="458" depart="1145.00" from="C1C0" to="C1C0"/>
    <trip id="459" depart="1147.50" from="C1D1" to="C2B2"/>
    <trip id="460" depart="1150.00" from="C1C2" to="D0D1"/>
    <trip id="461" depart="1152.50" from="C1C0" to="D1D0"/>
    <trip id="462" depart="1155.00" from="C1C0" to="B1A1"/>
    <trip id="463" depart="1157.50" from="B2A2" to="C0D0"/>
    <trip id="464" depart="1160.00" from="C2B2" to="A1A2"/>
    <trip id="465" depart="1162.50" from="B1A1" to="C2C1"/>
    <trip id="466" depart="1165.00" from="A2A1" to="A1B1"/>
    <trip id="467" depart="1167.50" from="C0C1" to="D2D1"/>
    <trip id="468" depart="1170.00" from="C0C1" to="D1D2"/>
    <trip id="469" depart="1172.50" from="D0D1" to="B0B1"/>
    <trip id="470" depart="1175.00" from="D0D1" to="B2C2"/>
    <trip id="471" depart="1177.50" from="D0C0" to="C2C1"/>
    <trip id="472" depart="1180.00" from="B1B0" to="A1A2"/>
    <trip id="473" depart="1182.50" from="D2C2" to="A1B1"/>
    <trip id="474" depart="1185.00" from="D2C2" to="D1C1"/>
    <trip id="475" depart="1187.50" from="C2B2" to="D2D1"/>
    <trip id="476" depart="1190.00" from="D2C2" to="D0C0"/>
    <trip id="477" depart="1192.50" from="B1B2" to="C2D2"/>
    <trip id="478" depart="1195.00" from="A0A1" to="C0C1"/>
    <trip id="479" depart="1197.50" from="B2B1" to="C1C2"/>
    <trip id="480" depart="1200.00" from="C1C2" to="C0D0"/>
    <trip id="481" depart="1202.50" from="D0C0" to="D1D2"/>
    <trip id="482" depart="1205.00" from="A1A2" to="B0A0"/>
    <trip id="483" depart="1207.50" from="A0A1" to="D1D0"/>
    <trip id="484" depart="1210.00" from="C0D0" to="D1D2"/>
    <trip id="485" depart="1212.50" from="B0A0" to="A1A0"/>
    <trip id="486" depart="1215.00" from="D0D1" to="D1D0"/>
    <trip id="487" depart="1217.50" from="B1A1" to="B1C1"/>
    <trip id="488" depart="1220.00" from="A1B1" to="D2C2"/>
    <trip id="489" depart="1222.50" from="B1A1" to="B2C2"/>
    <trip id="490" depart="1225.00" from="A1A2" to="D1D0"/>
    <trip id="491" depart="1227.50" from="A1B1" to="B2B1"/>
    <trip id="492" depart="1230.00" from="C1C2" to="C2C1"/>
    <trip id="493" depart="1232.50" from="D2C2" to="B2A2"/>
    <trip id="494" depart="1235.00" from="C2C1" to="A2A1"/>
    <trip id="495" depart="1237.50" from="B2A2" to="A1A2"/>
    <trip id="496" depart="1240.00" from="B2C2" to="B1C1"/>
    <trip id="497" depart="1242.50" from="D2C2" to="A0B0"/>
    <trip id="498" depart="1245.00" from="B1B2" to="B2B1"/>
    <trip id="499" depart="1247.50" from="D2C2" to="D1C1"/>
    <trip id="500" depart="1250.00" from="A1A2" to="C1D1"/>